
======================
  PFLOTRAN v3.0-beta
======================

